<configuration>
    <input>
        <net-file value="net/intersection.net.xml"/>
        <route-files value="routes/routes_4.rou.xml"/>
    </input>

    <time>
        <begin value="0"/>
        <end value="900"/>
    </time>

    <processing>
        <time-to-teleport value="-1"/>
     </processing>

    <output>
        <summary-output value="output/summary.xml"/>
    </output>
</configuration>
